12
molecule1
C     1.140633   -0.524084    0.000000
F     2.440282   -0.791223   -0.000000
C     0.746703    0.884911    0.000000
O     1.497063    1.825935    0.000000
N    -0.638746    1.045946    0.000000
C    -1.619140    0.072861    0.000000
O    -2.799743    0.316977   -0.000000
N    -1.113201   -1.208799    0.000000
C     0.229460   -1.499130    0.000000
H    -0.973355    1.997940    0.000000
H    -1.797450   -1.944339    0.000000
H     0.507405   -2.543273    0.000000
