28
molecule2
C     2.316204   -1.300704    0.021080
F     2.583736   -2.598616    0.126820
C     3.409321   -0.368235    0.261943
O     4.540406   -0.652767    0.563806
N     2.999923    0.953503    0.093636
C     1.751316    1.434309   -0.241434
O     1.515502    2.616287   -0.354741
N     0.795286    0.458780   -0.430595
C    -0.571111    0.932343   -0.774498
C    -1.318372    1.470608    0.431812
C    -1.999787    0.230878    0.996774
O    -3.155223    0.589586    1.704192
C    -2.242929   -0.616807   -0.273320
C    -3.662124   -0.519583   -0.816601
O    -4.569863   -1.180039    0.049734
O    -1.328697   -0.135174   -1.258663
C     1.094542   -0.874678   -0.311473
H     3.706918    1.659353    0.236078
H    -0.445439    1.671249   -1.562537
H    -2.085582    2.170591    0.098343
H    -0.670570    1.983855    1.136679
H    -1.307986   -0.310392    1.654200
H    -3.796307   -0.127182    1.646995
H    -2.018581   -1.674108   -0.087171
H    -3.691033   -0.933359   -1.828044
H    -3.978431    0.522336   -0.865223
H    -4.506967   -2.126491   -0.087140
H     0.294523   -1.566212   -0.525183
