024
Frontalin NMR
C     2.81108683     2.89056320     0.28835813
C     4.21244498     2.29885550     0.05708494
C     1.86345835     1.88365266     0.95882614
H     2.37593452     3.21129031    -0.67892001
H     2.88653923     3.80453369     0.90522972
C     4.10358842     0.86635609    -0.49162385
H     4.76870683     2.27169779     1.01408140
H     4.79551200     2.93748289    -0.62626849
C     2.03822103     0.49328263     0.32467356
H     2.08012034     1.81249983     2.04043884
H     0.81609502     2.21710348     0.85996547
O     3.39511411     0.10211227     0.49481419
C     5.43817545     0.18767554    -0.71005622
H     6.00736158     0.66300227    -1.51555727
H     5.30415648    -0.87393907    -0.96303711
H     6.05012554     0.21354478     0.20202932
C     3.12299343     0.78060408    -1.69517885
C     1.14240100    -0.60205035     0.85772443
H     1.39746815    -1.56677187     0.39402014
H     0.08959405    -0.39614403     0.62837257
H     1.25363748    -0.71718878     1.94206525
O     1.84319026     0.59279675    -1.09150201
H     3.29971611    -0.09667898    -2.33400287
H     3.06259165     1.69457306    -2.29837698
