24
glucose_chain
O          2.82344       -1.59451        0.13724
C          2.28672       -0.31416       -0.05546
C          2.62036        0.60964        1.13449
O          2.05500        0.11561        2.32471
C          4.14358        0.87118        1.29460
H          4.49194        1.33240        0.33847
C          4.52964        1.82218        2.46879
O          5.93437        1.88750        2.54839
C          3.94764        3.26569        2.38432
O          2.54284        3.27354        2.43922
C          4.51011        4.14358        3.48015
H          5.65816       -0.32174        0.99717
H          2.64611       -2.09758       -0.69954
F          0.91040       -0.40982       -0.18327
H          2.70723        0.13527       -0.98368
H          2.12446        1.56927        0.89454
H          2.48940       -0.75211        2.53173
O          4.79888       -0.35857        1.49352
O          3.77881        4.70150        4.28381
H          4.17563        1.36334        3.41810
H          6.26379        2.30828        1.71091
H          4.25907        3.71350        1.41643
H          2.27119        2.81557        3.27792
H          5.58265        4.29222        3.55284
