020
Molecule018701
C    -0.92056000     1.15419000     0.08446000
C     0.07619000    -0.00862000    -0.03127000
C     0.99201000     0.20220000    -1.20010000
C     2.28545000    -0.13103000    -1.20675000
C     3.00078000    -0.74056000    -0.04429000
C     2.28474000    -0.55413000     1.27444000
C     1.86827000     0.83908000     1.69814000
C     0.81631000    -0.16850000     1.28357000
H    -0.39656000     2.10122000     0.25979000
H    -1.51726000     1.26593000    -0.82622000
H    -1.61115000     1.00168000     0.92084000
H    -0.49639000    -0.95755000    -0.22282000
H     0.51685000     0.64137000    -2.07573000
H     2.90545000     0.02148000    -2.08877000
H     3.14394000    -1.82725000    -0.24024000
H     4.02598000    -0.31623000     0.03523000
H     2.63668000    -1.24433000     2.04710000
H     1.95002000     1.13932000     2.73602000
H     2.08748000     1.67800000     1.04291000
H     0.17764000    -0.58916000     2.06724000
