16
3H_2pyramidinone_2_1_3
C          0.11775        0.54393        0.00056
C         -0.53953        1.90233        0.00246
C         -0.59765       -0.68406       -0.00051
N         -2.01962       -0.75882       -0.00018
C          0.14476       -1.87668       -0.00204
F         -0.48187       -3.07982       -0.00307
N          1.49962       -1.84413       -0.00256
C          2.17180       -0.66950       -0.00163
O          3.38986       -0.66977       -0.00216
N          1.48227        0.51456       -0.00007
H         -1.64090        1.89252        0.00331
H         -0.21388        2.46298       -0.89873
H         -0.21261        2.46099        0.90443
H         -2.62714        0.06732        0.00050
H         -2.49270       -1.67407       -0.00098
H          2.01985        1.41221        0.00067
