16
3H_2pyramidinone_1_2_0
C          0.27807       -0.71955       -0.01379
N         -0.28254       -2.02420       -0.09567
C         -0.51790        0.45636       -0.00947
C         -2.02425        0.48055       -0.08857
C          0.13976        1.69154        0.07455
N          1.49154        1.75243        0.14903
C          2.24170        0.62547        0.14435
O          3.45517        0.70642        0.21230
N          1.63542       -0.60121        0.06331
H         -1.29057       -2.20346       -0.15702
H          0.33670       -2.84763       -0.09538
H         -2.50164       -0.51042       -0.15281
H         -2.33450        1.05579       -0.98645
H         -2.43008        0.98493        0.81380
H         -0.42783        2.61385        0.08092
H          2.23096       -1.46085        0.06092
