11
3H_2pyramidinone_3_3_0
C         -0.48485       -1.01870       -0.03931
F         -1.08296       -2.23517       -0.08665
C         -1.26037        0.14116       -0.02058
F         -2.61420        0.07073       -0.04926
C         -0.61546        1.37660        0.02830
N          0.74137        1.43304        0.05651
C          1.48826        0.29820        0.03787
O          2.70365        0.37273        0.06376
N          0.87178       -0.92823       -0.01007
H         -1.19230        2.29173        0.04384
H          1.44508       -1.80209       -0.02441
