13
3H_2pyramidinone_3_3_1
C         -0.29323        1.49523       -0.00083
F         -0.94889        2.68267       -0.00150
C         -1.01376        0.29996       -0.00160
F         -2.37063        0.32121       -0.00316
C         -0.30860       -0.91038       -0.00051
N         -0.99297       -2.14896       -0.00030
N          1.05095       -0.89450        0.00082
C          1.74130        0.27512        0.00142
O          2.95914        0.25930        0.00269
N          1.06594        1.47014        0.00077
H         -2.02255       -2.18840       -0.00016
H         -0.46277       -3.03234        0.00088
H          1.59608        2.37095        0.00150
