14
3H_2pyramidinone_2_3_0
C         -0.21371       -0.42876       -0.03135
C         -0.86537       -1.77829       -0.12935
C         -0.97789        0.74779        0.01018
F         -2.33386        0.71494       -0.03622
C         -0.31836        1.97293        0.10146
N          1.03735        2.01449        0.14838
C          1.77264        0.87416        0.10787
O          2.98827        0.93646        0.15125
N          1.14614       -0.34449        0.01825
H         -1.97250       -1.70671       -0.16314
H         -0.58059       -2.39030        0.75190
H         -0.51907       -2.28905       -1.05209
H         -0.88492        2.89402        0.13517
H          1.72188       -1.21719       -0.01231
