14
3H_2pyramidinone_0_2_0
C         -0.12377        1.06162       -0.01373
C          0.58294       -0.14727       -0.00167
C          2.08210       -0.17720       -0.01153
C         -0.14769       -1.33987        0.01983
N         -1.50522       -1.30761        0.02832
C         -2.17711       -0.12778        0.01626
O         -3.39503       -0.12447        0.02407
N         -1.48316        1.05626       -0.00472
H          0.40598        2.00639       -0.03039
H          2.50874        0.84826       -0.02858
H          2.43805       -0.72185       -0.91127
H          2.45073       -0.69715        0.89766
H          0.36203       -2.29485        0.02977
H         -1.99858        1.96552       -0.01401
