14
3H_2pyramidinone_3_3_2
C         -0.20678        1.68120       -0.00184
F         -0.85671        2.87180       -0.00304
C         -0.93359        0.48961       -0.00058
F         -2.29051        0.52423       -0.00058
C         -0.23348       -0.72622        0.00073
C         -0.94525       -2.04481        0.00229
N          1.12621       -0.71400        0.00067
C          1.82180        0.45230       -0.00061
O          3.03955        0.43094       -0.00064
N          1.15202        1.65006       -0.00183
H         -2.04855       -1.92295        0.00215
H         -0.65545       -2.61920        0.90692
H         -0.65544       -2.62146       -0.90088
H          1.68617        2.54851       -0.00276
