14
3H_2pyramidinone_3_0_2
C         -0.22662        1.67694       -0.00277
F         -0.88196        2.86426       -0.00480
C         -0.94901        0.48370       -0.00116
C         -0.24685       -0.72756        0.00100
C         -0.96693       -2.03962        0.00300
N          1.11269       -0.71493        0.00140
C          1.80553        0.45334       -0.00022
O          3.02331        0.43505        0.00019
N          1.13248        1.64975       -0.00228
H         -2.03176        0.50450       -0.00153
H         -2.06908       -1.90031        0.00248
H         -0.68323       -2.61580        0.90840
H         -0.68274       -2.61895       -0.90023
H          1.66417        2.54965       -0.00347
