14
3H_2pyramidinone_2_0_3
C         -0.23978        0.43682        0.00042
C         -0.96603        1.74922        0.00170
C         -0.94712       -0.77205       -0.00044
C         -0.23093       -1.96842       -0.00160
F         -0.88756       -3.15385       -0.00243
N          1.12639       -1.94803       -0.00190
C          1.80734       -0.77330       -0.00108
O          3.02531       -0.78004       -0.00137
N          1.12305        0.41736        0.00009
H         -2.06784        1.60748        0.00173
H         -0.68429        2.32880       -0.90215
H         -0.68402        2.32717        0.90650
H         -2.02997       -0.78879       -0.00020
H          1.65544        1.31762        0.00072
