17
3H_2pyramidinone_2_0_2
C         -0.88710        0.62770        0.00046
C         -2.37076        0.84938        0.00143
C         -0.35804       -0.66924        0.00081
C          1.03238       -0.83156       -0.00030
C          1.65280       -2.19380       -0.00019
N          1.83631        0.26384       -0.00160
C          1.31699        1.51801       -0.00184
O          2.06235        2.48126       -0.00299
N         -0.04381        1.69785       -0.00084
H         -2.92872       -0.11120        0.00247
H         -2.65948        1.42444       -0.90311
H         -2.65820        1.42571        0.90555
H         -1.01307       -1.53229        0.00182
H          0.88219       -2.99394        0.00106
H          2.28668       -2.31149        0.90345
H          2.28470       -2.31245       -0.90510
H         -0.43521        2.66777       -0.00108
