20
3H_2pyramidinone_2_2_2
C          0.35183        1.12973       -0.00038
C         -0.25743        2.51347        0.00030
C         -0.39513       -0.08745        0.00021
C         -1.91030       -0.13927        0.00117
C          0.33718       -1.30643       -0.00018
C         -0.30597       -2.66904        0.00065
N          1.69347       -1.27840       -0.00131
C          2.38354       -0.11767       -0.00205
O          3.60144       -0.13802       -0.00312
N          1.71474        1.07419       -0.00154
H         -1.35508        2.56548        0.00158
H          0.09168        3.06004       -0.90083
H          0.09358        3.05985        0.90082
H         -2.42621        0.83041        0.00107
H         -2.25975       -0.67697        0.90762
H         -2.26074       -0.67744       -0.90465
H         -1.41184       -2.65109        0.00166
H          0.02331       -3.22609        0.90269
H          0.02173       -3.22654       -0.90168
H          2.26996        1.96125       -0.00203
