14
3H_2pyramidinone_3_2_0
C          0.20870       -1.03987       -0.03038
F         -0.36190       -2.26900       -0.11153
C         -0.58336        0.11884       -0.02697
C         -2.08122        0.05975       -0.11243
C          0.06115        1.35789        0.05905
N          1.41514        1.42007        0.13581
C          2.16851        0.29116        0.13112
O          3.38176        0.37267        0.20064
N          1.56242       -0.93720        0.04813
H         -2.45227       -0.98431       -0.17673
H         -2.42391        0.60809       -1.01511
H         -2.52441        0.53301        0.78896
H         -0.51370        2.27526        0.06474
H          2.14308       -1.80635        0.04471
