13
3H_2pyramidinone_0_0_1
C         -0.46739       -1.47283        0.00172
C          0.74894       -0.79081       -0.00345
C          0.73454        0.60769       -0.00279
N          1.94515        1.33867       -0.00872
N         -0.45377        1.26842        0.00317
C         -1.63257        0.59331        0.00820
O         -2.68321        1.20937        0.01333
N         -1.63653       -0.77960        0.00732
H         -0.47880       -2.55547        0.00113
H          1.68216       -1.33986       -0.00802
H          2.85473        0.85420       -0.01479
H          1.92862        2.36880       -0.00808
H         -2.54186       -1.30190        0.01097
