15
3H_2pyramidinone_1_0_1
C         -0.15063        1.06839       -0.00434
N         -0.84107        2.30512       -0.00995
C         -0.86363       -0.13534       -0.00106
C         -0.15350       -1.33984        0.00467
N         -0.83812       -2.57734        0.00832
N          1.20525       -1.32030        0.00685
C          1.89088       -0.14835        0.00355
O          3.10880       -0.16010        0.00558
N          1.21163        1.04481       -0.00202
H         -1.87125        2.33383       -0.01164
H         -0.32072        3.19425       -0.01218
H         -1.94688       -0.13464       -0.00284
H         -1.86813       -2.61143        0.00662
H         -0.30989       -3.46187        0.01290
H          1.74724        1.94281       -0.00448
