17
3H_2pyramidinone_0_2_2
C         -1.59867        0.28453       -0.13443
C         -0.41237       -0.45426       -0.01510
C         -0.47484       -1.95743        0.03567
C          0.80801        0.25724        0.05312
C          2.14616       -0.41570        0.18185
N          0.78990        1.61598        0.00129
C         -0.36944        2.30996       -0.11429
O         -0.34506        3.52689       -0.15756
N         -1.56307        1.64110       -0.18197
H         -2.55544       -0.22077       -0.18985
H         -1.52032       -2.32679       -0.03184
H         -0.04499       -2.31983        0.99304
H          0.09531       -2.38665       -0.81484
H          2.08134       -1.52051        0.21820
H          2.64110       -0.07014        1.11345
H          2.78035       -0.13744       -0.68568
H         -2.45797        2.17381       -0.27106
