13
3H_2pyramidinone_0_1_3
C         -1.05709       -0.04246       -0.05714
C          0.14104       -0.76058        0.02078
N          0.13219       -2.17751        0.04496
C          1.34272       -0.04253        0.07397
F          2.53207       -0.68964        0.15009
N          1.32303        1.31530        0.04946
C          0.15207        1.99862       -0.02626
O          0.16187        3.21636       -0.04664
N         -1.03765        1.31644       -0.07953
H         -2.00448       -0.56583       -0.09986
H         -0.75697       -2.69700        0.00554
H          1.01141       -2.71152        0.10250
H         -1.94020        1.84035       -0.13788
