15
3H_2pyramidinone_1_1_0
C          0.11217       -0.67451       -0.02355
N         -0.47140       -1.96773       -0.11308
C         -0.66786        0.50850       -0.01437
N         -2.08735        0.50299       -0.09372
C          0.00005        1.73637        0.07719
N          1.35272        1.78152        0.15415
C          2.09054        0.64556        0.14449
O          3.30473        0.71248        0.21462
N          1.47056       -0.57433        0.05602
H         -1.48446       -2.12173       -0.17469
H          0.13151       -2.80316       -0.11750
H         -2.63901       -0.36000       -0.16262
H         -2.60854        1.39215       -0.08420
H         -0.55874        2.66333        0.08737
H          2.05507       -1.44145        0.04988
