14
1H_4pyramidinone_3_2_0
C          1.15460        1.62422       -0.06093
O          2.18687        2.27014       -0.07779
C          1.19664        0.22937        0.00479
F          2.39087       -0.41659        0.05039
C         -0.01601       -0.47801        0.02212
C         -0.04304       -1.97800        0.09184
N         -1.19206        0.21023       -0.02526
C         -1.20728        1.56838       -0.08887
N         -0.04151        2.26411       -0.10629
H          0.97713       -2.41393        0.12578
H         -0.56587       -2.37937       -0.80136
H         -0.58988       -2.29504        1.00436
H         -2.10117       -0.30523       -0.01294
H         -2.14931        2.09972       -0.12584
