17
1H_4pyramidinone_3_2_2
C         -0.87722        1.84289       -0.00103
O         -1.45444        2.91522       -0.00157
C         -1.60426        0.65119        0.00192
F         -2.96248        0.68005        0.00419
C         -0.90110       -0.56337        0.00248
C         -1.62262       -1.88081        0.00555
N          0.46254       -0.54847        0.00013
C          1.15287        0.62791       -0.00283
C          2.64949        0.64138       -0.00566
N          0.47907        1.80802       -0.00336
H         -2.72534       -1.75471        0.00696
H         -1.33490       -2.45669        0.90989
H         -1.33757       -2.45939       -0.89792
H          0.98333       -1.45512        0.00053
H          3.06226       -0.38930       -0.00493
H          3.01694        1.17196        0.89742
H          3.01344        1.16923       -0.91176
