16
1H_4pyramidinone_3_2_1
C         -0.69324        1.88616       -0.00522
O         -1.27226        2.95752       -0.00825
C         -1.41848        0.69304       -0.00173
F         -2.77675        0.71959       -0.00175
C         -0.71320       -0.52042        0.00181
C         -1.43199       -1.83927        0.00564
N          0.65031       -0.50256        0.00166
C          1.33799        0.67397       -0.00200
N          2.75208        0.67548       -0.00263
N          0.66326        1.85357       -0.00532
H         -2.53496       -1.71527        0.00463
H         -1.14498       -2.41309        0.91152
H         -1.14401       -2.41879       -0.89630
H          1.17730       -1.40556        0.00423
H          3.27840       -0.21013       -0.00070
H          3.27053        1.56576       -0.00559
