14
1H_4pyramidinone_2_0_3
C          1.35690        0.14727        0.07083
O          2.43529       -0.41447        0.14984
C          0.15964       -0.58976        0.02863
C          0.12976       -2.09296        0.07744
C         -1.04293        0.12140       -0.06243
N         -1.03407        1.47976       -0.10739
C          0.13587        2.16967       -0.06513
F          0.12870        3.52434       -0.11084
N          1.31589        1.50402        0.02307
H          1.14747       -2.52983        0.14982
H         -0.35244       -2.48505       -0.84271
H         -0.45462       -2.42440        0.96151
H         -1.98741       -0.40854       -0.09742
H         -1.93805        1.99855       -0.17522
