19
1H_4pyramidinone_1_2_2
C         -0.50722        1.77950        0.00185
O         -1.06397        2.86347        0.00358
C         -1.25628        0.58755        0.00344
N         -2.68065        0.65690        0.00691
C         -0.54077       -0.64075        0.00136
C         -1.19842       -1.99952        0.00293
N          0.82425       -0.61410       -0.00224
C          1.51602        0.55792       -0.00379
C          3.01301        0.56918       -0.00785
N          0.84685        1.73571       -0.00168
H         -3.16041        1.56867        0.00831
H         -3.28504       -0.17132        0.00774
H         -2.29956       -1.99213        0.00616
H         -0.86922       -2.55926        0.90342
H         -0.87434       -2.55896       -0.89958
H          1.35163       -1.51730       -0.00383
H          3.42527       -0.46168       -0.00939
H          3.38191        1.09772        0.89586
H          3.37694        1.09839       -0.91319
