14
1H_4pyramidinone_2_3_0
C          0.54131        1.27357       -0.02860
O          1.57134        1.92411       -0.00446
C          0.57235       -0.13176        0.03521
C          1.85972       -0.90601        0.13568
C         -0.65200       -0.81511        0.00254
F         -0.68222       -2.17128        0.06097
N         -1.81854       -0.12282       -0.08802
C         -1.82102        1.23419       -0.14817
N         -0.64987        1.91945       -0.11835
H          2.74873       -0.24181        0.15177
H          1.95262       -1.58810       -0.73556
H          1.85999       -1.50782        1.06882
H         -2.72579       -0.63980       -0.11176
H         -2.75662        1.77320       -0.22005
