14
1H_4pyramidinone_3_0_2
C          1.33347       -1.28308        0.07415
O          2.40086       -1.86802        0.11185
C          0.13529       -1.99864        0.09932
F          0.12994       -3.35398        0.16587
C         -1.06392       -1.28874        0.05444
N         -1.04931        0.06949       -0.01211
C          0.13090        0.75356       -0.03594
C          0.15200        2.24805       -0.10919
N          1.30799        0.07303        0.00723
H         -2.00723       -1.82006        0.07264
H         -1.95910        0.58228       -0.04488
H         -0.87689        2.66436       -0.13732
H          0.68976        2.56648       -1.02653
H          0.67624        2.65527        0.78045
