11
1H_4pyramidinone_0_0_3
C          0.18779       -1.48269       -0.05094
O          0.21260       -2.69950       -0.08779
C         -1.03126       -0.80586        0.01513
C         -1.01502        0.58822        0.05583
N          0.16962        1.25546        0.03079
C          1.34751        0.57774       -0.03392
F          2.52143        1.25492       -0.05847
N          1.35059       -0.78077       -0.07420
H         -1.97073       -1.34475        0.03466
H         -1.94643        1.13779        0.10734
H          0.17389        2.29946        0.06158
