18
1H_4pyramidinone_1_1_2
C         -0.58175        1.64412        0.01224
O         -1.14492        2.72469        0.02065
C         -1.32308        0.44832        0.00646
N         -2.74723        0.50063        0.01019
C         -0.60310       -0.77376       -0.00311
N         -1.25347       -2.03854       -0.00919
N          0.76118       -0.74414       -0.00662
C          1.44778        0.43138       -0.00103
C          2.94466        0.44931       -0.00524
N          0.77293        1.60673        0.00839
H         -3.23893        1.40600        0.01709
H         -3.33611       -0.33982        0.00563
H         -2.27409       -2.14603       -0.00664
H         -0.69300       -2.90301       -0.01607
H          1.29030       -1.64564       -0.01378
H          3.36131       -0.57977       -0.01329
H          3.31143        0.97382        0.90168
H          3.30607        0.98572       -0.90734
