15
1H_4pyramidinone_3_1_1
C         -0.80149        1.73705        0.00025
O         -1.38492        2.80598        0.00052
C         -1.52136        0.54088        0.00225
F         -2.87944        0.55484        0.00449
C         -0.81223       -0.66762        0.00189
N         -1.50170       -1.90604        0.00387
N          0.55097       -0.64719       -0.00042
C          1.23454        0.53199       -0.00241
N          2.64862        0.53855       -0.00494
N          0.55538        1.70946       -0.00203
H         -2.53141       -1.94109        0.00547
H         -0.97904       -2.79383        0.00371
H          1.08014       -1.54850       -0.00071
H          3.17808       -0.34519       -0.00544
H          3.16389        1.43068       -0.00648
