24
glucose_ring
O          1.23967        0.10655        0.53397   540.188
C          2.41368       -0.27820       -0.11832   292.971
C          2.66144        0.47838       -1.45026   292.891
C          2.94086        2.01344       -1.35744   294.728
O          3.60346        2.42789       -2.52696   540.255
C          1.63126        2.82274       -1.24079   292.4
H          1.83493        3.91523       -1.34353     0.0 
C          0.66668        2.39817       -2.36270   292.115
O          1.12256        2.85218       -3.61909   539.064
C          0.47386        0.85935       -2.32196   293.428
O         -0.41590        0.46229       -3.33346   539.154
O          1.70684        0.15447       -2.46166   538.825 
H          1.18697       -0.44370        1.35824     0.0
H          2.36217       -1.36671       -0.34679     0.0
H          3.27981       -0.09767        0.55729     0.0
H          3.62623        0.03881       -1.78806     0.0
F          3.75743        2.29774       -0.26996   693.249
H          4.54675        2.12615       -2.45630     0.0
O          1.01427        2.60946        0.00160   538.781
H          0.08979        0.43803       -4.18698     0.0
H         -0.31995        2.88180       -2.19170     0.0
H          1.69728        2.15992       -4.03533     0.0
H         -0.01456        0.57228       -1.37258     0.0
H          1.50002        3.16378        0.66694     0.0
24
glucose_chain
O          2.82344       -1.59451        0.13724   539.942
C          2.28672       -0.31416       -0.05546   294.5
C          2.62036        0.60964        1.13449   292.202
O          2.05500        0.11561        2.32471   538.988
C          4.14358        0.87118        1.29460   292.417
H          4.49194        1.33240        0.33847     0.0
C          4.52964        1.82218        2.46879   292.798
O          5.93437        1.88750        2.54839   540.085
C          3.94764        3.26569        2.38432   293.076
O          2.54284        3.27354        2.43922   539.618
C          4.51011        4.14358        3.48015   293.652
H          5.65816       -0.32174        0.99717     0.0
H          2.64611       -2.09758       -0.69954     0.0
F          0.91040       -0.40982       -0.18327   692.788 
H          2.70723        0.13527       -0.98368     0.0 
H          2.12446        1.56927        0.89454     0.0
H          2.48940       -0.75211        2.53173     0.0
O          4.79888       -0.35857        1.49352   539.097
O          3.77881        4.70150        4.28381   539.123
H          4.17563        1.36334        3.41810     0.0 
H          6.26379        2.30828        1.71091     0.0
H          4.25907        3.71350        1.41643     0.0
H          2.27119        2.81557        3.27792     0.0
H          5.58265        4.29222        3.55284     0.0
19
deoxyribose_chain
O          2.53652        2.22585        1.76992   539.883
C          2.25532        0.97972        2.34450   292.712
C          2.95016       -0.15894        1.56898   292.684
O          2.46766       -0.21843        0.24892   539.251
C          4.50823       -0.12332        1.57705   292.759
O          4.99331        1.00282        0.88466   539.394
C          5.14314       -0.21765        2.98712   293.66
C          4.73264       -1.47595        3.69600   293.699
O          4.14250       -1.42111        4.76310   538.915
H          2.05171        2.89697        2.31702     0.0 
H          1.15709        0.80116        2.31028     0.0
H          2.58189        0.96771        3.40659     0.0
H          2.63991       -1.10576        2.06110     0.0
H          2.72384        0.62392       -0.20882     0.0
H          4.85537       -1.01838        1.01431     0.0
H          4.96523        1.78257        1.49714     0.0
H          4.85405        0.66673        3.59439     0.0
F          6.52159       -0.21773        2.86490   693.488
H          4.96124       -2.44290        3.25947     0.0
19
deoxyribose_ring
O          1.07882        0.89550       -0.48950   540.087
C          2.29066        0.28941       -0.13769   294.622
C          3.22588        1.26062        0.61488   292.254
C          2.68069        1.75568        1.96714   292.345
O          3.74770        2.14313        2.79879   539.215
C          1.95834        2.99165        1.52526   290.691
C          2.96114        3.52068        0.50985   293.542
H          3.82398        4.01177        1.02007     0.0     
O          3.47637        2.40323       -0.19197   538.669
H          0.58552        0.23199       -1.03831     0.0
H          2.81640       -0.03264       -1.06506     0.0
F          2.04574       -0.82373        0.65025   693.019
H          4.16790        0.69744        0.79753     0.0 
H          2.03794        1.03405        2.52137     0.0
H          4.15994        1.30646        3.13918     0.0
H          1.69682        3.70468        2.33637     0.0
H          1.02009        2.70965        1.00717     0.0
O          2.34862        4.41345       -0.37956   539.311
H          2.21496        5.26066        0.12041     0.0
15
thymine
F         -2.88941       -2.08704        0.00574   693.594
O          2.78441        0.29797       -0.32174   537.985
N          0.70746        1.10063       -0.03866   406.912
N          1.13030       -1.21904       -0.30629   407.227
C         -1.12452       -0.45856       -0.00977   291.138
C         -0.63846        0.85783        0.07048   294.285
O         -1.40699        1.79055        0.23714   537.755
C         -2.60347       -0.73652        0.10907   293.671
C          1.59075        0.06947       -0.22623   295.232
C         -0.19611       -1.49354       -0.20216   292.588
H          1.06350        2.08243        0.02183     0.0
H         -0.52376       -2.52317       -0.27011     0.0
H         -3.14632       -0.19933       -0.69698     0.0
H         -2.96978       -0.37362        1.09248     0.0
H          1.80360       -2.00572       -0.44933     0.0
13
cytosine
C         -1.15375        0.31450       -0.03431   293.913
N          0.00077        0.99879        0.20402   406.997
N         -2.38094        1.01397       -0.15049   407.21 
O          2.22411        0.95678        0.53226   536.995
N          1.24098       -1.01553        0.19575   404.404
C          0.11224       -1.73115       -0.04173   292.125
C          1.19809        0.33597        0.31925   294.129
C         -1.11487       -1.08031       -0.16258   292.71 
H         -2.40758        2.03948       -0.05584     0.0
F         -2.24265       -1.79636       -0.39996   694.168  
H          0.16874       -2.80739       -0.13673     0.0
H         -3.26302        0.51291       -0.33056     0.0
H         -0.02255        2.03967        0.30059     0.0
12
uracil1
C         -1.09939       -0.50008        0.00236   293.379 
F         -2.42972       -0.76811        0.00331   694.384 
C         -0.63285        0.81604        0.00011   294.56  
O         -1.42240        1.74461       -0.00103   537.956 
N          0.71732        1.06172       -0.00080   407.097 
C          1.61346        0.02203        0.00048   295.406 
O          2.81124        0.24867       -0.00034   538.117 
N          1.15928       -1.27337        0.00269   407.48  
C         -0.17294       -1.54230        0.00363   292.903 
H          1.06590        2.04796       -0.00249     0.0
H          1.84005       -2.06651        0.00367     0.0
H         -0.51691       -2.56901        0.00537     0.0
28                                              
uracil2                                       
C         -0.18251       -1.34446        0.81689   292.911
F         -0.50358       -2.36731        1.64910   694.037
C         -1.13990       -0.78161       -0.01996   294.128
O         -2.28375       -1.20319       -0.01366   537.585
N         -0.79370        0.25077       -0.84765   406.786
C          0.48884        0.73940       -0.86705   294.89 
O          0.75552        1.67243       -1.60679   537.786
N          1.46215        0.18854       -0.04449   406.782
C          2.84327        0.74043       -0.06704   293.849
C          3.52921        0.48513       -1.41444   291.12 
C          4.07464       -0.88651       -1.14637   292.684
O          5.02270       -1.35877       -2.07289   539.235
C          4.59666       -0.70313        0.28191   292.722
C          5.99266       -0.05127        0.40152   292.891
O          6.97949       -0.84494       -0.20102   540.15 
O          3.65858        0.13736        0.93697   539.604
C          1.11739       -0.84170        0.79289   292.386
H         -1.51776        0.67702       -1.47133     0.0
H          2.78082        1.83523        0.11750     0.0
H          4.37131        1.20160       -1.52403     0.0
H          2.89356        0.57182       -2.31952     0.0
H          3.21147       -1.59118       -1.12967     0.0
H          5.55687       -0.58800       -2.39709     0.0
H          4.64385       -1.69814        0.77599     0.0
H          6.23887        0.10208        1.47775     0.0
H          6.01704        0.95731       -0.05762     0.0
H          7.22903       -1.54270        0.45934     0.0
H          1.84198       -1.29700        1.45478     0.0
47                                              
uracil3                                       
C         -0.55554        1.34307       -0.14382   292.841 
F         -1.06811        2.59551       -0.13069   693.792 
C         -1.34632        0.17573       -0.05322   293.271 
N         -2.77136        0.15743        0.10740   406.470 
C         -3.56567        1.12810        0.64113   295.202 
O         -3.09461        2.15864        1.09520   537.944 
O         -4.90330        0.89685        0.72832   539.737 
C         -5.79340        1.61869        1.50424   292.426 
C         -6.80988        2.33887        0.61867   290.698 
C         -7.83455        3.08599        1.48250   290.686 
C         -8.84578        3.84792        0.62027   290.687 
C         -9.86821        4.57170        1.49306   290.679 
N         -0.72138       -1.02578       -0.14679   404.648 
C          0.62195       -1.14670       -0.28533   294.112 
O          1.10999       -2.26155       -0.35239   537.136 
N          1.41874       -0.01890       -0.36150   406.661 
C          2.88369       -0.16593       -0.52430   293.327 
C          3.51910       -0.79521        0.74327   292.258 
O          4.09884       -2.05437        0.49073   539.082 
C          4.49954        0.28011        1.15513   292.230 
O          5.61947       -0.14142        1.89207   538.986 
C          4.77240        1.04727       -0.12836   292.230 
C          5.84920        0.49194       -1.07746   290.725 
O          3.52423        1.08459       -0.78552   539.142 
C          0.82631        1.21236       -0.30272   292.121 
H         -3.24246       -0.72704       -0.13892     0.0
H         -5.27162        2.36572        2.14254     0.0
H         -6.31909        0.90749        2.17680     0.0
H         -7.33524        1.59733       -0.02246     0.0
H         -6.27112        3.06019       -0.03447     0.0
H         -7.30392        3.80878        2.14125     0.0
H         -8.37508        2.35177        2.12045     0.0
H         -9.38122        3.13863       -0.04754     0.0
H         -8.31197        4.59602       -0.00562     0.0
H        -10.43249        3.84096        2.11129     0.0
H        -10.58610        5.12227        0.84969     0.0
H         -9.36008        5.29842        2.16255     0.0
H          3.07426       -0.80680       -1.41464     0.0
H          2.79527       -0.93720        1.57708     0.0
H          4.75584       -1.97650       -0.23971     0.0
H          3.91558        0.99518        1.78120     0.0
H          6.12564       -0.78459        1.33362     0.0
H          5.09771        2.07414        0.15006     0.0
H          5.59990       -0.50252       -1.48536     0.0
H          6.83270        0.44555       -0.56550     0.0
H          5.94847        1.17475       -1.94753     0.0
H          1.41344        2.11896       -0.37485     0.0
47
uracil3-trans
C         -0.20245        1.88586       -0.75363   292.834
F         -0.41403        3.11667       -0.15744   694.202
C         -1.23104        0.86508       -0.25548   293.409
N         -2.58416        1.26668       -0.66017   406.593
C         -3.59717        0.57500        0.14103   295.14
H          1.92347        2.13063       -0.83762     0.0
O         -3.52359       -0.80803       -0.04230   537.84
C         -5.45612        1.68111        0.84268   292.392
C         -6.78317        2.28514        0.38186   290.86
C         -7.48758        3.03832        1.51623   290.752
C         -8.80826        3.64463        1.02550   290.759
C         -9.51940        4.40082        2.14349   290.729
N         -0.92187       -0.43945       -0.84150   404.502
C          0.41337       -0.86764       -0.42818   294.066
O          0.62430       -2.16514       -0.90230   537.049
N          1.43175        0.05880       -0.96611   406.545
C          2.82138       -0.44309       -0.77180   293.264
C          3.21323       -0.75271        0.69538   292.203
O          4.16380       -1.78785        0.71907   539.024
C          3.86968        0.55164        1.06603   292.199
O          4.67016        0.53565        2.22382   538.953
C          4.58702        0.93291       -0.23397   292.202
C          5.99302        0.33972       -0.41871   290.7
O          3.76037        0.49101       -1.30041   539.104
C          1.20070        1.40143       -0.41363   292.194
H         -2.71039        2.28578       -0.45891     0.0
H         -4.80210        2.51326        1.19654     0.0
H         -5.65605        0.96332        1.67160     0.0
H         -7.44364        1.46908        0.01395     0.0
H         -6.58412        2.98746       -0.45768     0.0
H         -6.82484        3.85237        1.88448     0.0
H         -7.69231        2.33548        2.35386     0.0
H         -9.47712        2.83613        0.65734     0.0
H         -8.60726        4.34927        0.18894     0.0
H         -9.75429        3.71453        2.98468     0.0
H        -10.46871        4.82840        1.75706     0.0
H         -8.88082        5.23047        2.51484     0.0
H          2.90514       -1.38587       -1.35566     0.0
H          2.37839       -1.03105        1.37770     0.0
H          3.67050       -2.63144        0.54314     0.0
H          3.06235        1.29032        1.23598     0.0
H          5.31827       -0.21024        2.14957     0.0
H          4.69822        2.03912       -0.25594     0.0
H          5.98751       -0.76666       -0.44723     0.0
H          6.66756        0.68172        0.39387     0.0
H          6.41384        0.69608       -1.38276     0.0
O         -4.87200        1.01361       -0.24910   539.646
