18
3H_2pyramidinone_1_2_1
C          0.32309        1.11960       -0.00125
N         -0.29431        2.40236       -0.00441
C         -0.42078       -0.09552       -0.00077
C         -1.93423       -0.14650       -0.00401
C          0.30817       -1.31210        0.00288
N         -0.33739       -2.57684        0.00391
N          1.66482       -1.28716        0.00552
C          2.35508       -0.12525        0.00482
O          3.57299       -0.14522        0.00720
N          1.68563        1.06737        0.00151
H         -1.30872        2.54899       -0.00614
H          0.29149        3.24994       -0.00458
H         -2.44099        0.83008       -0.00715
H         -2.28684       -0.68390        0.90145
H         -2.28271       -0.68735       -0.90902
H         -1.36137       -2.67590        0.00223
H          0.22816       -3.43811        0.00668
H          2.23789        1.95552        0.00112
