14
3H_2pyramidinone_0_3_2
C         -1.69147       -0.21023       -0.14967
C         -0.50659       -0.94070       -0.05809
F         -0.54634       -2.29701       -0.08208
C          0.70620       -0.24495        0.05739
C          2.01830       -0.96119        0.16025
N          0.69667        1.11473        0.07705
C         -0.46410        1.81403       -0.01278
O         -0.44064        3.03156        0.00775
N         -1.65860        1.14800       -0.12625
H         -2.63880       -0.72688       -0.23954
H          1.89426       -2.06395        0.13394
H          2.51475       -0.68620        1.11427
H          2.66994       -0.66061       -0.68666
H         -2.55357        1.68341       -0.19559
