13
3H_2pyramidinone_3_1_0
C          0.01680       -1.02833       -0.04216
F         -0.56447       -2.25208       -0.12357
C         -0.76865        0.13195       -0.03420
N         -2.18200        0.06107       -0.11053
C         -0.12209        1.36935        0.05125
N          1.23258        1.42656        0.12376
C          1.98208        0.29451        0.11501
O          3.19581        0.37151        0.18097
N          1.37120       -0.93192        0.03199
H         -2.66403       -0.84730       -0.17373
H         -2.75106        0.92025       -0.10424
H         -0.69441        2.28787        0.06017
H          1.94823       -1.80345        0.02528
