15
3H_2pyramidinone_1_3_1
C         -0.13252        1.07079       -0.00318
N         -0.81247        2.31453       -0.00638
C         -0.85113       -0.13274        0.00076
F         -2.20906       -0.12792        0.00150
C         -0.14272       -1.34124        0.00400
N         -0.82423       -2.58157        0.00819
N          1.21593       -1.32351        0.00318
C          1.90489       -0.15415       -0.00071
O          3.12278       -0.16976       -0.00136
N          1.22968        1.04073       -0.00386
H         -1.84186        2.35787       -0.00590
H         -0.28290        3.19821       -0.00909
H         -1.85367       -2.62397        0.00888
H         -0.29192       -3.46368        0.01077
H          1.76921        1.93640       -0.00680
