17
3H_2pyramidinone_1_1_1
C          0.18104        1.09830       -0.00571
N         -0.44588        2.37620       -0.00886
C         -0.55982       -0.11789        0.00261
N         -1.98790       -0.11696        0.00789
C          0.17486       -1.33582        0.00539
N         -0.44669       -2.61303        0.01389
N          1.53190       -1.29917       -0.00011
C          2.21734       -0.13484       -0.00817
O          3.43532       -0.14975       -0.01294
N          1.54315        1.05409       -0.01087
H         -1.46249        2.51156       -0.00509
H          0.13264        3.22874       -0.01486
H         -2.54145        0.74603        0.00574
H         -2.54076       -0.98056        0.01358
H         -1.46295       -2.75264        0.01894
H          0.14108       -3.45944        0.01560
H          2.09060        1.94519       -0.01703
