13
3H_2pyramidinone_3_0_1
C         -0.31363        1.49315       -0.00092
F         -0.97242        2.67855       -0.00149
C         -1.03235        0.29769       -0.00011
C         -0.32699       -0.90999        0.00054
N         -1.01645       -2.14475        0.00155
N          1.03250       -0.89532        0.00029
C          1.72215        0.27496       -0.00052
O          2.93999        0.26007       -0.00071
N          1.04568        1.46967       -0.00109
H         -2.11510        0.31092        0.00005
H         -2.04659       -2.17463        0.00197
H         -0.49169       -3.03135        0.00209
H          1.57489        2.37104       -0.00167
