13
3H_2pyramidinone_1_0_3
C         -0.32174        0.59639       -0.00329
N         -1.01571        1.83106       -0.00946
C         -1.03096       -0.60954       -0.00002
C         -0.31738       -1.80739        0.00653
F         -0.97643       -2.99146        0.01014
N          1.04013       -1.78942        0.00946
C          1.72327       -0.61572        0.00608
O          2.94122       -0.62461        0.00879
N          1.04095        0.57623       -0.00028
H         -2.04597        1.85663       -0.01187
H         -0.49793        2.72169       -0.01091
H         -2.11377       -0.61942       -0.00235
H          1.57433        1.47555       -0.00280
