16
3H_2pyramidinone_3_2_1
C          0.26297        1.44192        0.00084
F         -0.36655        2.64500       -0.00021
C         -0.47537        0.24537       -0.00106
C         -1.98165        0.27380       -0.00495
C          0.23932       -0.97292        0.00056
N         -0.42245       -2.22740       -0.00033
N          1.59845       -0.95240        0.00326
C          2.29155        0.21272        0.00472
O          3.50935        0.19279        0.00699
N          1.62123        1.40756        0.00372
H         -2.38168        1.30889       -0.00586
H         -2.36854       -0.23999        0.90005
H         -2.36339       -0.23943       -0.91249
H         -1.44881       -2.30402       -0.00127
H          0.12937       -3.09747        0.00096
H          2.15620        2.30560        0.00506
