16
3H_2pyramidinone_2_3_1
C         -0.07852        0.90031        0.00077
C         -0.78671        2.22506        0.00141
C         -0.79340       -0.30825       -0.00348
F         -2.15166       -0.31596       -0.00747
C         -0.07947       -1.51383       -0.00306
N         -0.75554       -2.75722       -0.00616
N          1.27885       -1.49097        0.00086
C          1.96335       -0.31947        0.00463
O          3.18129       -0.33069        0.00809
N          1.28398        0.87279        0.00476
H         -1.89067        2.11074       -0.00268
H         -0.49130        2.80176       -0.89992
H         -0.49762        2.79703        0.90781
H         -1.78476       -2.80454       -0.00843
H         -0.21924       -3.63691       -0.00511
H          1.82141        1.77013        0.00795
