13
3H_2pyramidinone_1_3_3
C         -0.30247        0.59717       -0.00266
N         -0.99019        1.83646       -0.00774
C         -1.01286       -0.61075        0.00099
F         -2.36984       -0.62654       -0.00044
C         -0.29871       -1.80912        0.00634
F         -0.95587       -2.99453        0.01026
N          1.05860       -1.79100        0.00774
C          1.74200       -0.61781        0.00401
O          2.95996       -0.62725        0.00531
N          1.06036        0.57434       -0.00114
H         -2.01986        1.87271       -0.00936
H         -0.46627        2.72350       -0.00938
H          1.59516        1.47283       -0.00393
