17
3H_2pyramidinone_3_2_2
C          0.29700        1.59803       -0.00295
F         -0.32596        2.80460       -0.00657
C         -0.44808        0.40482       -0.00165
C         -1.95502        0.45105       -0.00443
C          0.26290       -0.81911        0.00225
C         -0.41065       -2.16367        0.00424
N          1.62216       -0.80076        0.00441
C          2.31997        0.36109        0.00301
O          3.53766        0.33608        0.00501
N          1.65480        1.55811       -0.00061
H         -2.34414        1.49021       -0.00738
H         -2.34764       -0.05411        0.90296
H         -2.34427       -0.05797       -0.91112
H         -1.51617       -2.10448        0.00253
H         -0.09934       -2.72688        0.90875
H         -0.09671       -2.73097       -0.89680
H          2.19349        2.45395       -0.00164
