16
3H_2pyramidinone_2_1_0
C          0.13673       -0.52466       -0.02203
C         -0.45226       -1.90948       -0.12904
C         -0.63763        0.66554        0.00404
N         -2.05830        0.68041       -0.06880
C          0.03985        1.88787        0.10700
N          1.39258        1.92478        0.17886
C          2.12352        0.78548        0.15319
O          3.33834        0.84480        0.21911
N          1.49641       -0.42946        0.05334
H         -1.55171       -1.94780       -0.18712
H         -0.14576       -2.50263        0.75794
H         -0.05397       -2.40288       -1.04031
H         -2.62799       -0.16896       -0.14627
H         -2.56569        1.57729       -0.04517
H         -0.51249        2.81849        0.13019
H          2.07837       -1.29877        0.03508
