17
3H_2pyramidinone_2_2_3
C          0.26852        0.60202        0.00201
C         -0.35985        1.97498        0.00426
C         -0.46575       -0.61748       -0.00245
C         -1.97320       -0.72520       -0.00664
C          0.26288       -1.81956       -0.00329
F         -0.38021       -3.01488       -0.00732
N          1.61771       -1.80601       -0.00031
C          2.30574       -0.64135        0.00356
O          3.52369       -0.65844        0.00608
N          1.63273        0.55171        0.00475
H         -1.45969        1.99731        0.00326
H         -0.01889        2.52922       -0.89523
H         -0.02115        2.52492        0.90727
H         -2.51702        0.23109       -0.00728
H         -2.30229       -1.28590        0.89377
H         -2.29717       -1.28355       -0.91038
H          2.18394        1.44110        0.00794
