11
3H_2pyramidinone_0_0_3
C         -1.03037       -0.56460       -0.07562
C          0.16817       -1.27550       -0.02120
C          1.36382       -0.56300        0.06801
F          2.54631       -1.22256        0.12286
N          1.34419        0.79488        0.10007
C          0.17092        1.47794        0.04642
O          0.17699        2.69549        0.07654
N         -1.01708        0.79450       -0.04149
H         -1.97079       -1.09657       -0.14503
H          0.16921       -2.35754       -0.04769
H         -1.92138        1.31695       -0.08287
