16
3H_2pyramidinone_1_2_3
C          0.24887        0.74550       -0.00060
N         -0.37877        2.02214       -0.00214
C         -0.48666       -0.47019        0.00010
C         -1.99402       -0.56147       -0.00199
C          0.23795       -1.67390        0.00264
F         -0.40875       -2.86715        0.00370
N          1.59320       -1.66266        0.00382
C          2.28356       -0.49861        0.00264
O          3.50148       -0.51776        0.00356
N          1.61244        0.69593        0.00054
H         -1.39589        2.15337       -0.00144
H          0.19870        2.87537       -0.00258
H         -2.51959        0.40662       -0.00558
H         -2.32924       -1.11406        0.90110
H         -2.32610       -1.11832       -0.90367
H          2.16281        1.58518       -0.00012
