13
3H_2pyramidinone_0_1_0
C          0.00530       -1.04341       -0.03355
C         -0.77674        0.11618       -0.03340
N         -2.18905        0.03923       -0.10444
C         -0.12923        1.35361        0.03841
N          1.22610        1.40894        0.10540
C          1.97361        0.27504        0.10413
O          3.18773        0.35016        0.16471
N          1.35987       -0.95102        0.03463
H         -0.46426       -2.01798       -0.08803
H         -2.66347       -0.87405       -0.15767
H         -2.76248        0.89550       -0.10480
H         -0.70058        2.27276        0.04102
H          1.93320       -1.82496        0.03358
