11
3H_2pyramidinone_3_0_3
C         -0.55126        1.01279        0.00059
F         -1.21541        2.19518        0.00130
C         -1.26418       -0.18618        0.00076
C         -0.55326       -1.38607        0.00008
F         -1.21481       -2.56873        0.00035
N          0.80497       -1.37055       -0.00084
C          1.49010       -0.19733       -0.00106
O          2.70800       -0.20727       -0.00194
N          0.80851        0.99499       -0.00029
H         -2.34662       -0.18536        0.00145
H          1.33397        1.89854       -0.00039
