17
uracil_001_002
C          0.02285        1.73302        0.00073
O         -0.54416        2.81307        0.00200
C         -0.72202        0.53709        0.00121
N         -2.14686        0.60485        0.00302
C         -0.00850       -0.69305       -0.00026
C         -0.66877       -2.05080        0.00032
N          1.35566       -0.67230       -0.00224
C          2.05794        0.50289       -0.00272
O          3.27704        0.48520       -0.00448
N          1.39180        1.69638       -0.00119
H         -2.62837        1.51568        0.00407
H         -2.75097       -0.22344        0.00294
H         -1.76976       -2.04320        0.00242
H         -0.34128       -2.61130        0.90097
H         -0.34451       -2.61063       -0.90190
H          1.88575       -1.57449       -0.00337
H          1.93417        2.59104       -0.00153
