15
uracil_002_003
C          0.01959        1.23016       -0.00003
O         -0.55650        2.30522       -0.00133
C         -0.70844        0.02619       -0.00119
C         -2.21445       -0.00144       -0.00443
C          0.00691       -1.17995        0.00055
F         -0.65373       -2.36630       -0.00034
N          1.36573       -1.17369        0.00304
C          2.06452        0.00558        0.00393
O          3.28356       -0.00758        0.00599
N          1.39128        1.19953        0.00249
H         -2.65419        1.01755       -0.00574
H         -2.57918       -0.53401        0.89907
H         -2.57494       -0.53435       -0.90943
H          1.88042       -2.08352        0.00420
H          1.92944        2.09661        0.00323
