15
1H_2pyramidinone_1_1_0
C          0.94866        0.07176        0.06883
N          2.20779       -0.57300        0.17835
C         -0.27145       -0.64302       -0.00422
N         -0.34080       -2.06245        0.02600
C         -1.45902        0.09352       -0.11097
N         -1.42955        1.45047       -0.14244
C         -0.23841        2.12264       -0.07035
O         -0.21842        3.34009       -0.09898
N          0.92355        1.43132        0.03328
H          2.31365       -1.59376        0.21108
H          3.06577       -0.00459        0.22810
H          0.49145       -2.65874        0.10326
H         -1.25426       -2.53651       -0.03026
H         -2.41207       -0.41825       -0.16925
H         -2.32688        1.98053       -0.22243
