13
1H_2pyramidinone_1_3_0
C         -0.46314       -0.82640       -0.00795
N         -1.34517       -1.93286       -0.02013
C         -0.95577        0.48480       -0.00457
F         -2.28926        0.73500       -0.01307
C         -0.04599        1.54202        0.00785
N          1.28965        1.29094        0.01637
C          1.75611       -0.00006        0.01278
O          2.95418       -0.21898        0.02040
N          0.88003       -1.03803        0.00074
H         -2.36677       -1.79912       -0.02641
H         -0.97051       -2.89259       -0.02248
H         -0.40474        2.56365        0.01075
H          1.96138        2.09165        0.02572
