11
1H_2pyramidinone_3_3_3
C         -0.52923        1.38660        0.00068
F         -1.18951        2.57023        0.00125
C         -1.23953        0.18575       -0.00036
F         -2.59573        0.18428       -0.00093
C         -0.52636       -1.01369       -0.00079
F         -1.18837       -2.19754       -0.00174
N          0.83342       -0.99476       -0.00027
C          1.51447        0.19789        0.00064
O          2.73237        0.20829        0.00099
N          0.82899        1.37091        0.00114
H          1.35948       -1.89796       -0.00060
