18
1H_2pyramidinone_1_1_2
C          0.21464        1.49375       -0.00257
N         -0.38980        2.77945        0.00048
C         -0.53582        0.28434        0.00304
N         -1.96439        0.30807        0.01178
C          0.19262       -0.94263       -0.00048
C         -0.44604       -2.31246        0.00493
N          1.55571       -0.91085       -0.00918
C          2.24291        0.27007       -0.01456
O          3.46096        0.27144       -0.02236
N          1.57079        1.44137       -0.01116
H         -1.40366        2.93458        0.00719
H          0.20972        3.61757       -0.00384
H         -2.50185        1.18110        0.01412
H         -2.53758       -0.54080        0.01566
H         -1.54591       -2.33432        0.01226
H         -0.10309       -2.86584        0.90428
H         -0.11489       -2.86759       -0.89774
H          2.09566       -1.80725       -0.01185
