14
1H_2pyramidinone_3_0_2
C         -0.23038        1.96841       -0.00226
F         -0.88680        3.15395       -0.00341
C         -0.94681        0.77222       -0.00056
C         -0.23978       -0.43681        0.00061
C         -0.96658       -1.74891        0.00246
N          1.12306       -0.41768        0.00006
C          1.80764        0.77285       -0.00163
O          3.02560        0.77935       -0.00211
N          1.12693        1.94773       -0.00276
H         -2.02965        0.78918       -0.00016
H         -2.06832       -1.60657        0.00267
H         -0.68478       -2.32672        0.90742
H         -0.68541       -2.32893       -0.90127
H          1.65529       -1.31805        0.00093
