11
1H_2pyramidinone_0_0_0
C         -0.55272       -1.39592       -0.00760
C         -1.28434       -0.20909       -0.02914
C         -0.59300        1.00197       -0.01756
N          0.76624        1.00869        0.01408
C          1.46882       -0.17123        0.03481
O          2.68637       -0.15936        0.06302
N          0.80473       -1.35654        0.02383
H         -1.06380       -2.34936       -0.01587
H         -2.36619       -0.22745       -0.05430
H         -1.14016        1.93608       -0.03380
H          1.27405        1.92220        0.02251
