18
1H_2pyramidinone_1_2_1
C          0.32218        1.34314        0.00276
N         -0.28532        2.62734        0.00427
C         -0.41954        0.12863       -0.00019
C         -1.93289        0.08112       -0.00149
C          0.31154       -1.08844       -0.00177
N         -0.34284       -2.35169       -0.00440
N          1.67306       -1.06053       -0.00057
C          2.35649        0.12340        0.00235
O          3.57453        0.12879        0.00345
N          1.67961        1.29382        0.00402
H         -1.29878        2.78195        0.00163
H          0.31282        3.46644        0.00746
H         -2.43517        1.06030        0.00083
H         -2.28581       -0.45883        0.90231
H         -2.28438       -0.45428       -0.90856
H         -1.36741       -2.44340       -0.00508
H          0.21166       -3.21999       -0.00520
H          2.21024       -1.95779       -0.00180
