13
1H_2pyramidinone_1_3_3
C         -0.30680        0.91099       -0.00111
N         -0.98896        2.15079       -0.00280
C         -1.01425       -0.29799       -0.00168
F         -2.37115       -0.31663       -0.00402
C         -0.29603       -1.49463        0.00026
F         -0.95401       -2.68078       -0.00015
N          1.06317       -1.47215        0.00261
C          1.74084       -0.27843        0.00304
O          2.95870       -0.26496        0.00512
N          1.05272        0.89254        0.00119
H         -2.01847        2.19195       -0.00423
H         -0.45731        3.03329       -0.00234
H          1.59155       -2.37400        0.00410
