17
1H_2pyramidinone_0_2_2
C          0.19103        1.85375        0.10547
C         -0.48238        0.62842        0.00312
C         -1.98521        0.61498       -0.08740
C          0.29138       -0.55654       -0.01078
C         -0.32339       -1.92877       -0.11643
N          1.64972       -0.46637        0.07445
C          2.27584        0.74965        0.17318
O          3.49009        0.80953        0.24813
N          1.54394        1.88980        0.18766
H         -0.35907        2.78592        0.12011
H         -2.40696        1.64234       -0.06004
H         -2.40911        0.04875        0.76836
H         -2.30056        0.14156       -1.04087
H         -1.42848       -1.91464       -0.18160
H         -0.04141       -2.52540        0.77620
H          0.06603       -2.43526       -1.02421
H          2.22854       -1.33772        0.06466
