14
1H_2pyramidinone_2_3_3
C         -0.23222        0.72663        0.00069
C         -0.94216        2.04614        0.00243
C         -0.93422       -0.48804       -0.00100
F         -2.29119       -0.52049       -0.00137
C         -0.20935       -1.68074       -0.00218
F         -0.86125       -2.87025       -0.00364
N          1.14950       -1.65177       -0.00179
C          1.82120       -0.45508       -0.00030
O          3.03900       -0.43567       -0.00003
N          1.12746        0.71233        0.00095
H         -2.04561        1.92560        0.00208
H         -0.65151        2.62262       -0.90057
H         -0.65185        2.61978        0.90735
H          1.68218       -2.55108       -0.00263
