13
1H_2pyramidinone_1_0_3
C         -0.32486        0.91076        0.00056
N         -1.01104        2.14733        0.00172
C         -1.03320       -0.29522       -0.00063
C         -0.31736       -1.49245       -0.00141
F         -0.97896       -2.67629       -0.00244
N          1.04203       -1.47226       -0.00106
C          1.72136       -0.27920       -0.00002
O          2.93924       -0.26723        0.00023
N          1.03458        0.89272        0.00079
H         -2.04109        2.18013        0.00193
H         -0.48377        3.03245        0.00280
H         -2.11601       -0.30588       -0.00087
H          1.56908       -2.37487       -0.00159
