16
1H_2pyramidinone_3_2_1
C          0.26059        1.69776        0.00543
F         -0.36805        2.90000        0.00674
C         -0.47312        0.49922       -0.00013
C         -1.97962        0.52520       -0.00497
C          0.24518       -0.71806       -0.00110
N         -0.42248       -1.97236       -0.00639
N          1.60814       -0.69265        0.00317
C          2.29373        0.49450        0.00844
O          3.51174        0.49895        0.01216
N          1.61663        1.66816        0.00956
H         -2.38146        1.55961       -0.00347
H         -2.36623        0.00883        0.89870
H         -2.36015        0.01387       -0.91408
H         -1.44909       -2.04433       -0.00953
H          0.12081       -2.84768       -0.00693
H          2.14339       -1.59099        0.00241
