18
1H_2pyramidinone_2_1_1
C          0.19234        1.16484        0.00426
C         -0.42476        2.53943        0.00957
C         -0.53954       -0.05782       -0.00037
N         -1.96821       -0.07137       -0.00077
C          0.20741       -1.27150       -0.00466
N         -0.41291       -2.55290       -0.00917
N          1.56914       -1.22234       -0.00446
C          2.23895       -0.03169       -0.00016
O          3.45687       -0.01246       -0.00012
N          1.54952        1.12973        0.00413
H         -1.52478        2.57334        0.01005
H         -0.07968        3.09230       -0.88926
H         -0.07930        3.08536        0.91251
H         -2.53325        0.78320        0.00187
H         -2.51374       -0.93922       -0.00431
H         -1.42843       -2.69531       -0.00935
H          0.17039       -3.40221       -0.01210
H          2.11996       -2.11140       -0.00765
