15
1H_2pyramidinone_1_0_1
C         -0.15269        1.33994        0.00359
N         -0.83651        2.57789        0.00626
C         -0.86356        0.13587       -0.00229
C         -0.15131       -1.06831       -0.00412
N         -0.84247       -2.30462       -0.00927
N          1.21098       -1.04556       -0.00062
C          1.89095        0.14719        0.00490
O          3.10888        0.15818        0.00802
N          1.20605        1.31955        0.00707
H         -1.86650        2.61265        0.00304
H         -0.30771        3.46207        0.01199
H         -1.94681        0.13584       -0.00506
H         -1.87267       -2.33274       -0.01155
H         -0.32264       -3.19406       -0.00989
H          1.74603       -1.94389       -0.00206
