16
uracil_001_001
C         -0.03491        1.57992        0.00690
O         -0.61401        2.65347        0.01181
C         -0.76560        0.37627        0.00173
N         -2.19047        0.41961        0.00143
C         -0.04113       -0.84394       -0.00341
N         -0.68763       -2.11087       -0.00746
N          1.32219       -0.81288       -0.00415
C          2.01296        0.36958        0.00053
O          3.23219        0.36392       -0.00027
N          1.33474        1.55702        0.00629
H         -2.68854        1.32150        0.00541
H         -2.77478       -0.42389       -0.00470
H         -1.70768       -2.22279       -0.00476
H         -0.12414       -2.97340       -0.01124
H          1.85872       -1.71057       -0.00821
H          1.86808        2.45706        0.01010
