15
uracil_002_000
C          0.28704       -1.18288        0.00554
O          1.10845       -2.08435        0.01928
C          0.69822        0.16215        0.01021
C          2.14804        0.56463        0.03248
C         -0.28788        1.15541       -0.00627
N         -1.60423        0.82081       -0.02594
C         -1.99489       -0.49333       -0.02992
O         -3.18029       -0.77740       -0.04730
N         -1.05087       -1.48765       -0.01431
H          2.82746       -0.31289        0.04290
H          2.35098        1.17145        0.93998
H          2.37925        1.17201       -0.86786
H         -0.00413        2.20123       -0.00339
H         -2.32299        1.57963       -0.03797
H         -1.35416       -2.48883       -0.01743
