14
1H_2pyramidinone_3_2_0
C          1.34021        0.16021        0.08402
F          2.53899       -0.46703        0.18090
C          0.14568       -0.57384        0.02578
C          0.13100       -2.07460        0.06744
C         -1.05827        0.13289       -0.07392
N         -1.05323        1.49136       -0.11190
C          0.12796        2.18684       -0.05338
O          0.12492        3.40430       -0.08787
N          1.30485        1.51731        0.04331
H          1.15416       -2.49714        0.14831
H         -0.33707       -2.46795       -0.85943
H         -0.45826       -2.41657        0.94422
H         -2.00027       -0.40045       -0.12113
H         -1.96068        2.00466       -0.18635
