14
1H_2pyramidinone_0_3_2
C         -0.31677        1.97316        0.10188
C         -0.97730        0.74855        0.01078
F         -2.33332        0.71677       -0.03495
C         -0.21406       -0.42859       -0.03130
C         -0.86682       -1.77760       -0.12915
N          1.14588       -0.34539        0.01763
C          1.77337        0.87276        0.10710
O          2.98907        0.93411        0.14988
N          1.03899        2.01366        0.14812
H         -0.88259        2.89469        0.13600
H         -1.97391       -1.70515       -0.16237
H         -0.58207       -2.38995        0.75186
H         -0.52140       -2.28849       -1.05215
H          1.72092       -1.21854       -0.01334
