20
1H_2pyramidinone_2_2_2
C          0.34501        1.33110        0.00042
C         -0.25385        2.71429        0.00035
C         -0.39469        0.11164       -0.00059
C         -1.90957        0.05859       -0.00262
C          0.34490       -1.10496        0.00029
C         -0.30682       -2.46824       -0.00022
N          1.70646       -1.06822        0.00170
C          2.38412        0.11783        0.00235
O          3.60212        0.12886        0.00352
N          1.70232        1.28415        0.00177
H         -1.35178        2.76968       -0.00014
H          0.10057        3.25891       -0.89989
H          0.09944        3.25829        0.90143
H         -2.42353        1.02966       -0.00377
H         -2.26095       -0.47858        0.90339
H         -2.25831       -0.47899       -0.90942
H         -1.41244       -2.44739       -0.00125
H          0.01766       -3.02699        0.90251
H          0.01944       -3.02730       -0.90210
H          2.24990       -1.96234        0.00228
