16
1H_2pyramidinone_1_2_0
C          0.98565        0.23613        0.06142
N          2.25622       -0.38783        0.16787
C         -0.23020       -0.49258       -0.00162
C         -0.33632       -1.99659        0.03468
C         -1.42409        0.23630       -0.10551
N         -1.40711        1.59294       -0.14390
C         -0.22233        2.27568       -0.08181
O         -0.21320        3.49310       -0.11676
N          0.94560        1.59523        0.01897
H          2.38584       -1.40478        0.20703
H          3.10387        0.19656        0.20957
H          0.62714       -2.52550        0.11635
H         -0.83149       -2.35131       -0.89392
H         -0.95562       -2.29922        0.90542
H         -2.37435       -0.28265       -0.15620
H         -2.30961        2.11451       -0.22160
