14
1H_2pyramidinone_3_3_2
C         -0.21024        1.97275       -0.00221
F         -0.86120        3.16160       -0.00322
C         -0.93107        0.77818       -0.00041
F         -2.28816        0.80811        0.00033
C         -0.22584       -0.43550        0.00064
C         -0.94397       -1.75453        0.00261
N          1.13730       -0.41662       -0.00015
C          1.82439        0.77213       -0.00195
O          3.04238        0.77584       -0.00266
N          1.14673        1.94822       -0.00295
H         -2.04698       -1.63068        0.00292
H         -0.65576       -2.32991        0.90711
H         -0.65654       -2.33221       -0.90068
H          1.66896       -1.31738        0.00062
