14
1H_2pyramidinone_0_0_2
C         -0.33082        1.96915        0.10460
C         -0.99090        0.74498        0.01044
C         -0.22949       -0.42970       -0.03294
C         -0.89487       -1.77017       -0.13402
N          1.13031       -0.35061        0.01742
C          1.75895        0.86693        0.10993
O          2.97465        0.92708        0.15411
N          1.02521        2.00869        0.15240
H         -0.89744        2.89004        0.13979
H         -2.07273        0.71557       -0.02757
H         -2.00131       -1.67638       -0.16702
H         -0.61867       -2.38769        0.74610
H         -0.55601       -2.28278       -1.05848
H          1.70314       -1.22511       -0.01474
