17
1H_2pyramidinone_3_2_2
C          0.29135        1.83915       -0.00282
F         -0.33378        3.04330       -0.00497
C         -0.44599        0.64200       -0.00122
C         -1.95339        0.68269       -0.00209
C          0.27202       -0.57914        0.00110
C         -0.40776       -1.92511        0.00320
N          1.63546       -0.55224        0.00153
C          2.32230        0.63373       -0.00017
O          3.54033        0.63672        0.00021
N          1.64698        1.80766       -0.00227
H         -2.34644        1.72041       -0.00398
H         -2.34331        0.17611        0.90566
H         -2.34218        0.17327       -0.90876
H         -1.51302       -1.86513        0.00285
H         -0.09730       -2.48984        0.90708
H         -0.09683       -2.49298       -0.89854
H          2.17157       -1.45059        0.00319
