19
1H_2pyramidinone_2_2_1
C          0.32351        1.18370       -0.00018
C         -0.28506        2.56224        0.00034
C         -0.40884       -0.03913       -0.00056
C         -1.92214       -0.10985       -0.00220
C          0.33433       -1.24999        0.00046
N         -0.30735       -2.52005        0.00104
N          1.69532       -1.21021        0.00097
C          2.36825       -0.02097        0.00062
O          3.58620       -0.00495        0.00084
N          1.68133        1.14307        0.00023
H         -1.38372        2.60689        0.00132
H          0.06392        3.10961       -0.90032
H          0.06481        3.10879        0.90120
H         -2.44588        0.85642       -0.00425
H         -2.26651       -0.65263        0.90318
H         -2.26400       -0.65427       -0.90761
H         -1.33074       -2.62341        0.00121
H          0.25614       -3.38254        0.00217
H          2.24042       -2.10270        0.00155
