11
1H_2pyramidinone_3_0_0
C          0.18042       -1.46532       -0.04362
F          0.18751       -2.81994       -0.07916
C         -1.02897       -0.77255        0.00807
C         -0.99914        0.62125        0.04421
N          0.19199        1.27661        0.02850
C          1.37223        0.57626       -0.02310
O          2.43641        1.16847       -0.03742
N          1.35425       -0.78184       -0.05835
H         -1.97154       -1.30448        0.02006
H         -1.92554        1.18015        0.08478
H          0.20238        2.32139        0.05602
