11
1H_2pyramidinone_0_0_3
C         -0.64371        1.37309        0.02682
C         -1.28578        0.13603       -0.01396
C         -0.50671       -1.02085       -0.03328
F         -1.10324       -2.23810       -0.07288
N          0.84982       -0.92703       -0.01241
C          1.46314        0.30119        0.02764
O          2.67845        0.37924        0.04606
N          0.71309        1.43387        0.04679
H         -1.22395        2.28599        0.04261
H         -2.36636        0.07605       -0.03024
H          1.42526       -1.79947       -0.02713
