17
1H_2pyramidinone_1_1_1
C          0.17762        1.33546        0.00264
N         -0.44128        2.61397        0.00833
C         -0.55957        0.11906        0.00121
N         -1.98767        0.12110        0.00363
C          0.17876       -1.09868       -0.00304
N         -0.45080       -2.37528       -0.00343
N          1.54098       -1.05730       -0.00661
C          2.21762        0.13023       -0.00594
O          3.43564        0.14260       -0.00942
N          1.53460        1.29599       -0.00113
H         -1.45725        2.75569        0.01318
H          0.14823        3.45916        0.00940
H         -2.53874        0.98586        0.00533
H         -2.54300       -0.74074        0.00141
H         -1.46769       -2.50853        0.00067
H          0.12596       -3.22904       -0.00629
H          2.08658       -1.94955       -0.00995
