13
1H_4pyramidinone_0_1_3
C         -0.34031        1.81675        0.00731
O         -0.93267        2.88058        0.01172
C         -1.05186        0.61618        0.00191
C         -0.33561       -0.58586       -0.00272
N         -1.02218       -1.82464       -0.00773
N          1.02714       -0.55769       -0.00216
C          1.70041        0.62449        0.00300
F          3.05587        0.63486        0.00352
N          1.01724        1.79865        0.00775
H         -2.13561        0.61640        0.00151
H         -2.05226       -1.85647       -0.00860
H         -0.49894       -2.71208       -0.00980
H          1.56877       -1.45117       -0.00571
