13
1H_4pyramidinone_1_3_3
C         -0.04449        1.37465       -0.00013
O         -0.62036        2.44833       -0.00077
C         -0.76913        0.17162       -0.00076
N         -2.18903        0.16483       -0.00217
C         -0.04754       -1.03052        0.00004
F         -0.69682       -2.22243       -0.00050
N          1.31207       -1.00850        0.00137
C          1.99067        0.16909        0.00194
F          3.34614        0.17287        0.00325
N          1.31315        1.34561        0.00120
H         -2.72415        1.04526       -0.00278
H         -2.71280       -0.72238       -0.00264
H          1.84229       -1.90844        0.00195
