13
1H_4pyramidinone_1_3_0
C          0.70825        1.17840       -0.00185
O          1.74355        1.82017        0.02485
C          0.73283       -0.22534        0.03731
N          1.95725       -0.94075        0.10903
C         -0.49277       -0.90557        0.00348
F         -0.52791       -2.26194        0.03874
N         -1.65733       -0.20697       -0.06509
C         -1.65470        1.15136       -0.10178
N         -0.48028        1.83173       -0.07021
H          2.86057       -0.44590        0.13421
H          1.96616       -1.97060        0.13755
H         -2.56693       -0.71978       -0.08995
H         -2.58869        1.69519       -0.15627
