13
1H_4pyramidinone_3_0_1
C          1.34795       -1.08610        0.07321
O          2.41397       -1.67295        0.11960
C          0.14835       -1.80024        0.07752
F          0.14030       -3.15607        0.13297
C         -1.04936       -1.08814        0.02329
N         -1.03132        0.27048       -0.03235
C          0.14911        0.95223       -0.03595
N          0.15873        2.36493       -0.09460
N          1.32523        0.27067        0.01683
H         -1.99375       -1.61779        0.02541
H         -1.93713        0.78960       -0.07266
H         -0.72383        2.89473       -0.13632
H          1.05175        2.87865       -0.09695
