13
1H_4pyramidinone_0_0_1
C         -0.28559       -1.72149        0.01022
O         -0.26329       -2.93888        0.00326
C         -1.50117       -1.04111        0.08914
C         -1.48224        0.35307        0.09438
N         -0.29837        1.01848        0.02347
C          0.87998        0.33752       -0.05327
N          2.10660        1.03696       -0.12711
N          0.87694       -1.02277       -0.05915
H         -2.44058       -1.57754        0.14523
H         -2.41185        0.90481        0.15492
H         -0.30135        2.06326        0.02841
H          2.12462        2.06701       -0.12479
H          2.99629        0.52069       -0.18470
