14
1H_4pyramidinone_0_3_2
C         -1.28946        1.35473        0.00156
O         -1.87260        2.42361        0.00189
C         -2.01063        0.16064        0.00391
C         -1.30423       -1.04172        0.00344
F         -1.97557       -2.22010        0.00568
N          0.05602       -1.03272        0.00073
C          0.74519        0.14474       -0.00157
C          2.24157        0.15992       -0.00464
N          0.06811        1.32447       -0.00113
H         -3.09394        0.16203        0.00605
H          0.56733       -1.94396        0.00041
H          2.65474       -0.87062       -0.00473
H          2.60861        0.69017        0.89880
H          2.60486        0.68880       -0.91040
