11
1H_4pyramidinone_3_0_3
C          1.37813       -0.55566        0.05314
O          2.44449       -1.14232        0.09340
C          0.17998       -1.27154        0.00025
F          0.17427       -2.62849       -0.00759
C         -1.01854       -0.55930       -0.04463
N         -1.00142        0.80041       -0.03636
C          0.17585        1.48040        0.01539
F          0.17858        2.83583        0.02296
N          1.35307        0.80255        0.05966
H         -1.96184       -1.08922       -0.08605
H         -1.90258        1.32734       -0.07017
