14
1H_4pyramidinone_0_2_0
C          1.97985        0.21337        0.00211
O          3.05097        0.79248        0.00144
C          0.78818        0.93999       -0.00240
C         -0.42426        0.23826       -0.00153
C         -1.73335        0.97040       -0.00629
N         -0.41089       -1.12485        0.00368
C          0.76277       -1.81203        0.00808
N          1.94519       -1.14374        0.00727
H          0.80646        2.02370       -0.00654
H         -1.58649        2.07153       -0.00988
H         -2.31494        0.69447        0.89805
H         -2.31188        0.68815       -0.91064
H         -1.31003       -1.65754        0.00439
H          0.75842       -2.89418        0.01225
