14
1H_4pyramidinone_2_0_0
C          1.35719        0.16384        0.06873
O          2.43430       -0.40016        0.14899
C          0.15812       -0.57059        0.02986
C          0.12479       -2.07354        0.08377
C         -1.04291        0.14306       -0.06280
N         -1.03074        1.50120       -0.11247
C          0.14063        2.18828       -0.07338
N          1.31932        1.52055        0.01633
H          1.14157       -2.51254        0.15635
H         -0.35943       -2.46757       -0.83449
H         -0.45931       -2.40065        0.96963
H         -1.98869       -0.38472       -0.09536
H         -1.93276        2.02318       -0.18152
H          0.13792        3.26966       -0.11362
