13
1H_4pyramidinone_3_3_1
C         -1.07476        1.36891       -0.00569
O         -1.66031        2.43665       -0.00991
C         -1.79165        0.17091       -0.00390
F         -3.14887        0.16865       -0.00693
C         -1.08064       -1.02955        0.00103
F         -1.74530       -2.21195        0.00298
N          0.27947       -1.01407        0.00373
C          0.96337        0.16509        0.00170
N          2.37733        0.17158        0.00391
N          0.28301        1.34293       -0.00283
H          0.79920       -1.92046        0.00732
H          2.90648       -0.71235        0.00592
H          2.89267        1.06366        0.00269
