16
1H_4pyramidinone_1_2_3
C          0.13930        1.88930       -0.00156
O         -0.41658        2.97373       -0.00040
C         -0.61141        0.69729        0.00154
N         -2.03564        0.76752        0.00595
C          0.10334       -0.53197        0.00001
C         -0.55375       -1.89065        0.00315
N          1.46795       -0.50451       -0.00448
C          2.15696        0.66436       -0.00743
F          3.51251        0.65485       -0.01186
N          1.49386        1.84425       -0.00593
H         -2.51480        1.67960        0.00695
H         -2.64025       -0.06059        0.00793
H         -1.65496       -1.88280        0.00716
H         -0.22381       -2.44960        0.90384
H         -0.23024       -2.45074       -0.89916
H          2.00753       -1.40002       -0.00569
