19
1H_4pyramidinone_2_2_1
C         -0.15928        1.78610       -0.00512
O         -0.71298        2.87174       -0.00874
C         -0.90723        0.59166       -0.00217
C         -2.41815        0.62635       -0.00399
C         -0.19226       -0.63188        0.00229
C         -0.87551       -1.97662        0.00616
N          1.17155       -0.61081        0.00306
C          1.86338        0.56005       -0.00032
N          3.27759        0.55548       -0.00015
N          1.19559        1.73976       -0.00417
H         -2.82020        1.66058       -0.00774
H         -2.80621        0.11914        0.90421
H         -2.80373        0.11371       -0.91022
H         -1.98059       -1.91610        0.00514
H         -0.56664       -2.54059        0.91105
H         -0.56523       -2.54657       -0.89448
H          1.69969       -1.51336        0.00613
H          3.80040       -0.33222        0.00211
H          3.79983        1.44355       -0.00306
