11
1H_4pyramidinone_0_3_0
C         -1.46965       -0.30678        0.02391
O         -2.68402       -0.39441        0.03989
C         -0.85545        0.94637       -0.00967
C          0.53848        1.00239       -0.02760
F          1.16758        2.20333       -0.06055
N          1.26491       -0.14738       -0.01205
C          0.64748       -1.35891        0.02114
N         -0.70944       -1.43242        0.03875
H         -1.44275        1.85658       -0.02176
H          2.30825       -0.10094       -0.02564
H          1.23461       -2.26784        0.03357
