14
1H_4pyramidinone_3_3_2
C         -1.27002        1.35569        0.00099
O         -1.85149        2.42565        0.00092
C         -1.99128        0.16062        0.00331
F         -3.34852        0.16350        0.00548
C         -1.28496       -1.04241        0.00334
F         -1.95454       -2.22206        0.00558
N          0.07526       -1.03281        0.00105
C          0.76441        0.14465       -0.00132
C          2.26081        0.15959       -0.00419
N          0.08752        1.32449       -0.00128
H          0.58680       -1.94392        0.00106
H          2.67375       -0.87104       -0.00413
H          2.62796        0.68985        0.89921
H          2.62431        0.68821       -0.91002
