17
3H_4pyramidinone_1_1_1
C         -0.40426        1.43945        0.00731
O         -0.98050        2.51447        0.01312
C         -1.13755        0.23750        0.00316
N         -2.56189        0.27678        0.00542
C         -0.40950       -0.97780       -0.00332
N         -1.03971       -2.24943       -0.00738
N          0.94932       -0.93854       -0.00571
C          1.63814        0.22995       -0.00191
N          3.05213        0.21050       -0.00500
N          0.96689        1.41106        0.00473
H         -3.06235        1.17733        0.01006
H         -3.14146       -0.57035        0.00179
H         -2.05880       -2.37258       -0.00536
H         -0.46027       -3.10147       -0.01197
H          3.55920       -0.68632       -0.01038
H          3.58974        1.08931       -0.00233
H          1.50086        2.31017        0.00776
