11
3H_4pyramidinone_3_3_0
C         -0.05515       -1.15137        0.00163
O         -0.07136       -2.37011        0.00319
C          1.16149       -0.46535       -0.00461
F          2.34161       -1.13576       -0.00926
C          1.13933        0.92962       -0.00608
F          2.29940        1.63047       -0.01222
N         -0.04798        1.58943       -0.00144
C         -1.22640        0.91290        0.00449
N         -1.23363       -0.44697        0.00594
H         -2.15954        1.46089        0.00799
H         -2.14775       -0.95376        0.01036
