20
3H_4pyramidinone_2_2_2
C         -0.35877        1.56087       -0.00284
O         -0.92300        2.64241       -0.00493
C         -1.10140        0.36228       -0.00064
C         -2.61232        0.38666       -0.00100
C         -0.38150       -0.85636        0.00182
C         -1.04373       -2.20688        0.00454
N          0.97707       -0.82955        0.00175
C          1.67474        0.33394       -0.00054
C          3.16988        0.30459       -0.00078
N          1.01231        1.52021       -0.00272
H         -3.02149        1.41807       -0.00314
H         -2.99573       -0.12462        0.90690
H         -2.99520       -0.12811       -0.90717
H         -2.14965       -2.15915        0.00446
H         -0.72591       -2.76752        0.90840
H         -0.72589       -2.77123       -0.89699
H          3.54159       -0.74213        0.00100
H          3.55261        0.82248        0.90335
H          3.55214        0.81916       -0.90702
H          1.55425        2.41489       -0.00443
