16
3H_4pyramidinone_1_3_2
C         -0.78485        1.08996        0.00269
O         -1.36813        2.16095        0.00470
C         -1.50641       -0.11452        0.00190
N         -2.92639       -0.12464        0.00314
C         -0.78383       -1.31452       -0.00031
F         -1.42703       -2.50848       -0.00103
N          0.57339       -1.29137       -0.00192
C          1.26169       -0.11964       -0.00138
C          2.75701       -0.13547       -0.00374
N          0.58779        1.06346        0.00105
H         -3.46387        0.75435        0.00440
H         -3.44803       -1.01312        0.00225
H          3.13816       -1.17878       -0.00573
H          3.13635        0.38314        0.90141
H          3.13325        0.38533       -0.90894
H          1.12088        1.96335        0.00151
