14
3H_4pyramidinone_3_2_0
C         -0.66705       -1.56477        0.10431
O         -0.70036       -2.78188        0.16103
C          0.55861       -0.90027        0.01266
F          1.71902       -1.60613       -0.01373
C          0.55794        0.50134       -0.05071
C          1.83082        1.28587       -0.15019
N         -0.62498        1.17126       -0.02158
C         -1.80980        0.51340        0.06774
N         -1.83427       -0.84372        0.13036
H          2.72560        0.62918       -0.16532
H          1.91168        1.96946        0.72069
H          1.82114        1.88765       -1.08294
H         -2.73469        1.07479        0.08883
H         -2.75366       -1.33618        0.19884
