14
3H_4pyramidinone_0_2_3
C         -0.24744        1.68692       -0.00190
O         -0.83456        2.75488       -0.00298
C         -0.96970        0.49248       -0.00033
C         -0.26395       -0.71657        0.00090
C         -0.98013       -2.03088        0.00262
N          1.09557       -0.70029        0.00053
C          1.78814        0.46842       -0.00101
F          3.14344        0.44733       -0.00135
N          1.12465        1.65507       -0.00222
H         -2.05349        0.50604       -0.00006
H         -2.08271       -1.89515        0.00272
H         -0.69421       -2.60674        0.90753
H         -0.69463       -2.60890       -0.90105
H          1.66901        2.54738       -0.00339
