16
3H_4pyramidinone_2_1_0
C         -0.96009       -1.12229        0.10985
O         -1.01394       -2.33402        0.23906
C          0.28239       -0.45906        0.05225
C          1.58189       -1.22186        0.14818
C          0.27059        0.94594       -0.09848
N          1.46973        1.70075       -0.16659
N         -0.91677        1.60216       -0.18155
C         -2.10085        0.94480       -0.12384
N         -2.12512       -0.40359        0.02029
H          1.42501       -2.31431        0.26355
H          2.15922       -0.86808        1.02812
H          2.17907       -1.06120       -0.77394
H          2.39810        1.26024       -0.10968
H          1.42476        2.72416       -0.27680
H         -3.02681        1.50055       -0.19331
H         -3.04718       -0.89419        0.06289
