14
3H_4pyramidinone_0_3_2
C         -1.30289        1.06553        0.00321
O         -1.89922        2.12838        0.00504
C         -2.01475       -0.13452        0.00370
C         -1.30040       -1.33141        0.00157
F         -1.95829       -2.51610        0.00198
N          0.05747       -1.31190       -0.00094
C          0.74567       -0.13840       -0.00144
C          2.24092       -0.15245       -0.00436
N          0.06999        1.04515        0.00064
H         -3.09805       -0.14134        0.00568
H          2.62344       -1.19524       -0.00576
H          2.61971        0.36732        0.90036
H          2.61610        0.36841       -0.90995
H          0.60030        1.94659        0.00027
