15
3H_4pyramidinone_0_1_1
C         -0.82944        1.46627        0.00681
O         -1.42383        2.53022        0.01179
C         -1.54391        0.26772        0.00218
C         -0.83174       -0.93503       -0.00325
N         -1.51381       -2.17390       -0.00741
N          0.52731       -0.91256       -0.00433
C          1.21673        0.25952        0.00001
N          2.63062        0.24124       -0.00160
N          0.54312        1.44378        0.00576
H         -2.62766        0.27031        0.00294
H         -2.54375       -2.21007       -0.00654
H         -0.98372       -3.05732       -0.01067
H          3.13841       -0.65516       -0.00670
H          3.16732        1.12059        0.00175
H          1.07435        2.34438        0.00928
