18
3H_4pyramidinone_1_2_1
C         -0.33625        1.59447        0.00454
O         -0.90377        2.67421        0.00751
C         -1.08001        0.39796        0.00108
N         -2.50455        0.45692        0.00073
C         -0.35926       -0.82512       -0.00207
C         -0.99383       -2.18969       -0.00534
N          0.99988       -0.79177       -0.00207
C          1.69693        0.37127        0.00104
N          3.11073        0.34164        0.00060
N          1.03432        1.55650        0.00449
H         -2.99149        1.36486        0.00302
H         -3.10102       -0.37730       -0.00260
H         -2.09547       -2.19507       -0.00468
H         -0.65801       -2.74644        0.89455
H         -0.65882       -2.74195       -0.90827
H          3.61131       -0.55883       -0.00233
H          3.65468        1.21654        0.00283
H          1.57465        2.45182        0.00699
