13
3H_4pyramidinone_0_3_1
C         -1.10507        1.05495       -0.00117
O         -1.70187        2.11754       -0.00130
C         -1.81646       -0.14541       -0.00410
C         -1.10154       -1.34195       -0.00384
F         -1.75884       -2.52698       -0.00662
N          0.25632       -1.32181       -0.00085
C          0.94389       -0.14833        0.00194
N          2.35783       -0.16401        0.00489
N          0.26790        1.03511        0.00181
H         -2.89976       -0.15275       -0.00651
H          2.86734       -1.05945        0.00503
H          2.89285        0.71637        0.00675
H          0.79741        1.93670        0.00398
