13
3H_4pyramidinone_0_0_1
C          1.51409        0.16091        0.01614
O          2.62876        0.65339        0.03097
C          1.36368       -1.22620        0.00349
C          0.07447       -1.75495       -0.01331
N         -1.00036       -0.92497       -0.01711
C         -0.84715        0.42643       -0.00477
N         -1.98815        1.26164       -0.00935
N          0.40336        0.96823        0.01181
H          2.22538       -1.88263        0.00656
H         -0.07290       -2.82662       -0.02338
H         -2.93273        0.85053       -0.02184
H         -1.88854        2.28698       -0.00052
H          0.52009        2.00725        0.02131
