14
3H_4pyramidinone_2_0_0
C          0.21684       -1.05516       -0.02550
O         -0.29001       -2.16237       -0.09377
C         -0.58227        0.10241       -0.02915
C         -2.08335        0.05225       -0.11599
C          0.06137        1.34251        0.05183
N          1.41499        1.40789        0.13054
C          2.17311        0.28220        0.13291
N          1.58249       -0.93888        0.05583
H         -2.46517       -0.98812       -0.17631
H         -2.42156        0.59956       -1.02099
H         -2.52381        0.53266        0.78297
H         -0.51451        2.25931        0.05215
H          3.25051        0.36131        0.19649
H          2.18138       -1.79556        0.05898
