19
3H_4pyramidinone_2_2_1
C         -0.17177        1.57796       -0.00201
O         -0.73435        2.66038       -0.00380
C         -0.91627        0.38052       -0.00118
C         -2.42716        0.40720       -0.00263
C         -0.19818       -0.83920        0.00098
C         -0.86250       -2.18873        0.00220
N          1.16048       -0.81441        0.00204
C          1.85974        0.34775        0.00113
N          3.27348        0.31535        0.00215
N          1.19929        1.53518       -0.00082
H         -2.83475        1.43923       -0.00433
H         -2.81198       -0.10413        0.90466
H         -2.81019       -0.10637       -0.90942
H         -1.96835       -2.13930        0.00125
H         -0.54630       -2.75053        0.90590
H         -0.54482       -2.75292       -0.89949
H          3.77230       -0.58609        0.00349
H          3.81913        1.18919        0.00139
H          1.74220        2.42893       -0.00149
