17
3H_4pyramidinone_2_0_2
C         -0.52393       -1.13086       -0.00892
O         -1.03474       -2.23834       -0.01791
C         -1.32153        0.02719       -0.00024
C         -2.82518       -0.02276       -0.00163
C         -0.67483        1.26744        0.00994
N          0.68067        1.33288        0.01106
C          1.44189        0.20744        0.00247
C          2.93320        0.31818        0.00370
N          0.84442       -1.01601       -0.00736
H         -3.21013       -1.06368       -0.01028
H         -3.21330        0.49874       -0.90182
H         -3.21463        0.48430        0.90621
H         -1.24973        2.18480        0.01689
H          3.24735        1.38355        0.01206
H          3.34336       -0.16938       -0.90527
H          3.34307       -0.18357        0.90503
H          1.43403       -1.87992       -0.01392
