16
3H_4pyramidinone_3_2_1
C         -0.70448        1.63606       -0.00177
O         -1.29083        2.70470       -0.00317
C         -1.42727        0.44083       -0.00041
F         -2.78558        0.46299       -0.00072
C         -0.71983       -0.76996        0.00135
C         -1.42269       -2.09335        0.00291
N          0.63933       -0.74969        0.00143
C          1.33461        0.41835       -0.00028
N          2.74836        0.39242       -0.00101
N          0.66759        1.60561       -0.00170
H         -2.52682       -1.97957        0.00148
H         -1.12967       -2.66531        0.90804
H         -1.12771       -2.66834       -0.89966
H          3.25121       -0.50677       -0.00030
H          3.28988        1.26881       -0.00327
H          1.20389        2.50322       -0.00291
