15
3H_4pyramidinone_1_0_1
C         -0.52339       -1.10116       -0.01571
O         -1.04281       -2.20439       -0.03169
C         -1.31376        0.05856       -0.00240
N         -2.73111       -0.00792       -0.00718
C         -0.66519        1.29701        0.01580
N          0.69085        1.35710        0.02002
C          1.44769        0.22849        0.00688
N          2.85809        0.33020        0.01149
N          0.84549       -0.99307       -0.01078
H         -3.22132       -0.91402       -0.02080
H         -3.29578        0.85413        0.00259
H         -1.23749        2.21554        0.02654
H          3.31214        1.25491        0.02463
H          3.44583       -0.51585        0.00143
H          1.43077       -1.85952       -0.02082
