18
3H_4pyramidinone_1_1_2
C         -0.59407        1.42790        0.01110
O         -1.16806        2.50412        0.01971
C         -1.32986        0.22750        0.00525
N         -2.75410        0.26976        0.00918
C         -0.60441       -0.98933       -0.00456
N         -1.23729       -2.25961       -0.01078
N          0.75444       -0.95296       -0.00819
C          1.44591        0.21432       -0.00260
C          2.94121        0.19327       -0.00725
N          0.77696        1.39669        0.00710
H         -3.25267        1.17135        0.01626
H         -3.33545       -0.57614        0.00473
H         -2.25663       -2.38063       -0.00829
H         -0.65962       -3.11283       -0.01779
H          3.31870       -0.85135       -0.01539
H          3.32365        0.70558        0.90019
H          3.31808        0.71761       -0.91014
H          1.31321        2.29477        0.01145
