11
3H_4pyramidinone_0_3_3
C         -0.57264        1.02627       -0.00052
O         -1.16485        2.09139       -0.00107
C         -1.28866       -0.17186        0.00020
C         -0.57751       -1.37140        0.00086
F         -1.23896       -2.55413        0.00168
N          0.78073       -1.35600        0.00069
C          1.46884       -0.18422       -0.00006
F          2.82423       -0.19974       -0.00028
N          0.80011        1.00025       -0.00062
H         -2.37199       -0.17539        0.00027
H          1.34070        1.89483       -0.00114
