11
3H_4pyramidinone_3_3_3
C         -0.54805        1.02716        0.00023
O         -1.13866        2.09334        0.00047
C         -1.26410       -0.17199        0.00039
F         -2.62135       -0.17525        0.00077
C         -0.55291       -1.37215        0.00014
F         -1.21251       -2.55617        0.00035
N          0.80529       -1.35602       -0.00031
C          1.49329       -0.18421       -0.00050
F          2.84869       -0.19974       -0.00101
N          0.82469        1.00032       -0.00020
H          1.36561        1.89471       -0.00033
