17
3H_4pyramidinone_3_2_2
C         -0.89088        1.61141        0.00009
O         -1.47745        2.67993        0.00012
C         -1.61335        0.41607        0.00182
F         -2.97165        0.43806        0.00353
C         -0.90579       -0.79463        0.00182
C         -1.60897       -2.11792        0.00384
N          0.45344       -0.77419       -0.00001
C          1.14858        0.39439       -0.00180
C          2.64369        0.37070       -0.00402
N          0.48109        1.58132       -0.00166
H         -2.71309       -2.00374        0.00494
H         -1.31441       -2.69066        0.90796
H         -1.31638       -2.69247       -0.89978
H          3.01949       -0.67454       -0.00409
H          3.02546        0.88906        0.90026
H          3.02264        0.88810       -0.91004
H          1.01758        2.47912       -0.00298
