14
3H_4pyramidinone_2_0_3
C          0.19625       -1.05668       -0.02548
O         -0.31212       -2.16347       -0.08895
C         -0.60169        0.10164       -0.02756
C         -2.10325        0.05283       -0.10662
C          0.04354        1.34118        0.04749
N          1.39757        1.40532        0.11939
C          2.15495        0.27909        0.12044
F          3.50500        0.37634        0.19324
N          1.56247       -0.94174        0.04879
H         -2.48649       -0.98731       -0.16171
H         -2.44552        0.59773       -1.01154
H         -2.53857        0.53646        0.79312
H         -0.53140        2.25856        0.04878
H          2.15926       -1.79995        0.05062
